6436051
  -OEChem-02181917222D

 71 74  0     0  0  0  0  0  0999 V2000
    8.0622    1.5000    0.0000 O   0  0  0  0  0  0  0  0  0  0  0  0
    4.5981   -4.5000    0.0000 N   0  0  0  0  0  0  0  0  0  0  0  0
    4.5981   -2.5000    0.0000 N   0  0  0  0  0  0  0  0  0  0  0  0
    6.3301    1.5000    0.0000 N   0  0  0  0  0  0  0  0  0  0  0  0
    7.1962    6.0000    0.0000 N   0  0  0  0  0  0  0  0  0  0  0  0
    3.7320   -4.0000    0.0000 C   0  0  0  0  0  0  0  0  0  0  0  0
    5.4641   -4.0000    0.0000 C   0  0  0  0  0  0  0  0  0  0  0  0
    3.7320   -3.0000    0.0000 C   0  0  0  0  0  0  0  0  0  0  0  0
    5.4641   -3.0000    0.0000 C   0  0  0  0  0  0  0  0  0  0  0  0
    4.5981   -5.5000    0.0000 C   0  0  0  0  0  0  0  0  0  0  0  0
    4.5981   -1.5000    0.0000 C   0  0  0  0  0  0  0  0  0  0  0  0
    5.4641   -1.0000    0.0000 C   0  0  0  0  0  0  0  0  0  0  0  0
    3.7320   -6.0000    0.0000 C   0  0  0  0  0  0  0  0  0  0  0  0
    5.4641   -6.0000    0.0000 C   0  0  0  0  0  0  0  0  0  0  0  0
    5.4641   -0.0000    0.0000 C   0  0  0  0  0  0  0  0  0  0  0  0
    5.4641   -7.0000    0.0000 C   0  0  0  0  0  0  0  0  0  0  0  0
    2.8660   -5.5000    0.0000 C   0  0  0  0  0  0  0  0  0  0  0  0
    6.3301   -5.5000    0.0000 C   0  0  0  0  0  0  0  0  0  0  0  0
    3.7320   -7.0000    0.0000 C   0  0  0  0  0  0  0  0  0  0  0  0
    6.3301    0.5000    0.0000 C   0  0  0  0  0  0  0  0  0  0  0  0
    2.0000   -6.0000    0.0000 C   0  0  0  0  0  0  0  0  0  0  0  0
    6.3301   -7.5000    0.0000 C   0  0  0  0  0  0  0  0  0  0  0  0
    2.8660   -7.5000    0.0000 C   0  0  0  0  0  0  0  0  0  0  0  0
    7.1962   -6.0000    0.0000 C   0  0  0  0  0  0  0  0  0  0  0  0
    2.0000   -7.0000    0.0000 C   0  0  0  0  0  0  0  0  0  0  0  0
    7.1962   -7.0000    0.0000 C   0  0  0  0  0  0  0  0  0  0  0  0
    7.1962    2.0000    0.0000 C   0  0  0  0  0  0  0  0  0  0  0  0
    7.1962    3.0000    0.0000 C   0  0  0  0  0  0  0  0  0  0  0  0
    8.0622    3.5000    0.0000 C   0  0  0  0  0  0  0  0  0  0  0  0
    8.0622    4.5000    0.0000 C   0  0  0  0  0  0  0  0  0  0  0  0
    8.9282    5.0000    0.0000 C   0  0  0  0  0  0  0  0  0  0  0  0
    7.1962    5.0000    0.0000 C   0  0  0  0  0  0  0  0  0  0  0  0
    8.9282    6.0000    0.0000 C   0  0  0  0  0  0  0  0  0  0  0  0
    8.0622    6.5000    0.0000 C   0  0  0  0  0  0  0  0  0  0  0  0
    8.0622    7.5000    0.0000 C   0  0  0  0  0  0  0  0  0  0  0  0
    3.1215   -3.8923    0.0000 H   0  0  0  0  0  0  0  0  0  0  0  0
    3.5200   -4.5826    0.0000 H   0  0  0  0  0  0  0  0  0  0  0  0
    5.6762   -4.5826    0.0000 H   0  0  0  0  0  0  0  0  0  0  0  0
    6.0747   -3.8923    0.0000 H   0  0  0  0  0  0  0  0  0  0  0  0
    3.5200   -2.4174    0.0000 H   0  0  0  0  0  0  0  0  0  0  0  0
    3.1215   -3.1077    0.0000 H   0  0  0  0  0  0  0  0  0  0  0  0
    6.0747   -3.1077    0.0000 H   0  0  0  0  0  0  0  0  0  0  0  0
    5.6762   -2.4174    0.0000 H   0  0  0  0  0  0  0  0  0  0  0  0
    4.5981   -6.1200    0.0000 H   0  0  0  0  0  0  0  0  0  0  0  0
    4.3860   -0.9174    0.0000 H   0  0  0  0  0  0  0  0  0  0  0  0
    3.9875   -1.6077    0.0000 H   0  0  0  0  0  0  0  0  0  0  0  0
    5.6762   -1.5826    0.0000 H   0  0  0  0  0  0  0  0  0  0  0  0
    6.0747   -0.8923    0.0000 H   0  0  0  0  0  0  0  0  0  0  0  0
    5.2520    0.5826    0.0000 H   0  0  0  0  0  0  0  0  0  0  0  0
    4.8535   -0.1077    0.0000 H   0  0  0  0  0  0  0  0  0  0  0  0
    4.9272   -7.3100    0.0000 H   0  0  0  0  0  0  0  0  0  0  0  0
    2.8660   -4.8800    0.0000 H   0  0  0  0  0  0  0  0  0  0  0  0
    6.3301   -4.8800    0.0000 H   0  0  0  0  0  0  0  0  0  0  0  0
    4.2690   -7.3100    0.0000 H   0  0  0  0  0  0  0  0  0  0  0  0
    6.5422   -0.0826    0.0000 H   0  0  0  0  0  0  0  0  0  0  0  0
    6.9407    0.6077    0.0000 H   0  0  0  0  0  0  0  0  0  0  0  0
    1.4631   -5.6900    0.0000 H   0  0  0  0  0  0  0  0  0  0  0  0
    6.3301   -8.1200    0.0000 H   0  0  0  0  0  0  0  0  0  0  0  0
    2.8660   -8.1200    0.0000 H   0  0  0  0  0  0  0  0  0  0  0  0
    7.7331   -5.6900    0.0000 H   0  0  0  0  0  0  0  0  0  0  0  0
    1.4631   -7.3100    0.0000 H   0  0  0  0  0  0  0  0  0  0  0  0
    7.7331   -7.3100    0.0000 H   0  0  0  0  0  0  0  0  0  0  0  0
    5.7932    1.8100    0.0000 H   0  0  0  0  0  0  0  0  0  0  0  0
    6.6592    3.3100    0.0000 H   0  0  0  0  0  0  0  0  0  0  0  0
    8.5991    3.1900    0.0000 H   0  0  0  0  0  0  0  0  0  0  0  0
    9.4651    4.6900    0.0000 H   0  0  0  0  0  0  0  0  0  0  0  0
    6.6592    4.6900    0.0000 H   0  0  0  0  0  0  0  0  0  0  0  0
    9.4651    6.3100    0.0000 H   0  0  0  0  0  0  0  0  0  0  0  0
    8.6822    7.5000    0.0000 H   0  0  0  0  0  0  0  0  0  0  0  0
    8.0622    8.1200    0.0000 H   0  0  0  0  0  0  0  0  0  0  0  0
    7.4422    7.5000    0.0000 H   0  0  0  0  0  0  0  0  0  0  0  0
  1 27  2  0  0  0  0
  2  6  1  0  0  0  0
  2  7  1  0  0  0  0
  2 10  1  0  0  0  0
  3  8  1  0  0  0  0
  3  9  1  0  0  0  0
  3 11  1  0  0  0  0
  4 20  1  0  0  0  0
  4 27  1  0  0  0  0
  4 63  1  0  0  0  0
  5 32  1  0  0  0  0
  5 34  2  0  0  0  0
  6  8  1  0  0  0  0
  6 36  1  0  0  0  0
  6 37  1  0  0  0  0
  7  9  1  0  0  0  0
  7 38  1  0  0  0  0
  7 39  1  0  0  0  0
  8 40  1  0  0  0  0
  8 41  1  0  0  0  0
  9 42  1  0  0  0  0
  9 43  1  0  0  0  0
 10 13  1  0  0  0  0
 10 14  1  0  0  0  0
 10 44  1  0  0  0  0
 11 12  1  0  0  0  0
 11 45  1  0  0  0  0
 11 46  1  0  0  0  0
 12 15  1  0  0  0  0
 12 47  1  0  0  0  0
 12 48  1  0  0  0  0
 13 17  2  0  0  0  0
 13 19  1  0  0  0  0
 14 16  2  0  0  0  0
 14 18  1  0  0  0  0
 15 20  1  0  0  0  0
 15 49  1  0  0  0  0
 15 50  1  0  0  0  0
 16 22  1  0  0  0  0
 16 51  1  0  0  0  0
 17 21  1  0  0  0  0
 17 52  1  0  0  0  0
 18 24  2  0  0  0  0
 18 53  1  0  0  0  0
 19 23  2  0  0  0  0
 19 54  1  0  0  0  0
 20 55  1  0  0  0  0
 20 56  1  0  0  0  0
 21 25  2  0  0  0  0
 21 57  1  0  0  0  0
 22 26  2  0  0  0  0
 22 58  1  0  0  0  0
 23 25  1  0  0  0  0
 23 59  1  0  0  0  0
 24 26  1  0  0  0  0
 24 60  1  0  0  0  0
 25 61  1  0  0  0  0
 26 62  1  0  0  0  0
 27 28  1  0  0  0  0
 28 29  2  0  0  0  0
 28 64  1  0  0  0  0
 29 30  1  0  0  0  0
 29 65  1  0  0  0  0
 30 31  1  0  0  0  0
 30 32  2  0  0  0  0
 31 33  2  0  0  0  0
 31 66  1  0  0  0  0
 32 67  1  0  0  0  0
 33 34  1  0  0  0  0
 33 68  1  0  0  0  0
 34 35  1  0  0  0  0
 35 69  1  0  0  0  0
 35 70  1  0  0  0  0
 35 71  1  0  0  0  0
M  END
> <PUBCHEM_COMPOUND_CID>
6436051

> <PUBCHEM_COMPOUND_CANONICALIZED>
1

> <PUBCHEM_CACTVS_COMPLEXITY>
614

> <PUBCHEM_CACTVS_HBOND_ACCEPTOR>
4

> <PUBCHEM_CACTVS_HBOND_DONOR>
1

> <PUBCHEM_CACTVS_ROTATABLE_BOND>
10

> <PUBCHEM_CACTVS_SUBSKEYS>
AAADcfB7oAAAAAAAAAAAAAAAAAAAAAAAAAA8eIEAAAAAAAAB0AAAHgAQAAAADCjBngQ+gJPIEACoAzV3VACCgCAxAiAI2KA4ZNgIYOLAkZGUIAhglgDIyYcQgMAOAAAAAAAAAAAAAAAAAAAAAAAAAAAAAA==

> <PUBCHEM_IUPAC_OPENEYE_NAME>
(~{E})-~{N}-[4-(4-benzhydrylpiperazin-1-yl)butyl]-3-(6-methyl-3-pyridyl)prop-2-enamide

> <PUBCHEM_IUPAC_CAS_NAME>
(~{E})-~{N}-[4-[4-(diphenylmethyl)-1-piperazinyl]butyl]-3-(6-methyl-3-pyridinyl)-2-propenamide

> <PUBCHEM_IUPAC_NAME>
(~{E})-~{N}-[4-(4-benzhydrylpiperazin-1-yl)butyl]-3-(6-methylpyridin-3-yl)prop-2-enamide

> <PUBCHEM_IUPAC_SYSTEMATIC_NAME>
(~{E})-~{N}-[4-[4-(diphenylmethyl)piperazin-1-yl]butyl]-3-(6-methylpyridin-3-yl)prop-2-enamide

> <PUBCHEM_IUPAC_TRADITIONAL_NAME>
(~{E})-~{N}-[4-(4-benzhydrylpiperazino)butyl]-3-(6-methyl-3-pyridyl)acrylamide

> <PUBCHEM_IUPAC_INCHI>
InChI=1S/C30H36N4O/c1-25-14-15-26(24-32-25)16-17-29(35)31-18-8-9-19-33-20-22-34(23-21-33)30(27-10-4-2-5-11-27)28-12-6-3-7-13-28/h2-7,10-17,24,30H,8-9,18-23H2,1H3,(H,31,35)/b17-16+

> <PUBCHEM_IUPAC_INCHIKEY>
DVYCNKDRINREMB-WUKNDPDISA-N

> <PUBCHEM_XLOGP3_AA>
4.7

> <PUBCHEM_EXACT_MASS>
468.289

> <PUBCHEM_MOLECULAR_FORMULA>
C30H36N4O

> <PUBCHEM_MOLECULAR_WEIGHT>
468.645

> <PUBCHEM_OPENEYE_CAN_SMILES>
CC1=NC=C(C=C1)C=CC(=O)NCCCCN2CCN(CC2)C(C3=CC=CC=C3)C4=CC=CC=C4

> <PUBCHEM_OPENEYE_ISO_SMILES>
CC1=NC=C(C=C1)/C=C/C(=O)NCCCCN2CCN(CC2)C(C3=CC=CC=C3)C4=CC=CC=C4

> <PUBCHEM_CACTVS_TPSA>
48.5

> <PUBCHEM_MONOISOTOPIC_WEIGHT>
468.289

> <PUBCHEM_TOTAL_CHARGE>
0

> <PUBCHEM_HEAVY_ATOM_COUNT>
35

> <PUBCHEM_ATOM_DEF_STEREO_COUNT>
0

> <PUBCHEM_ATOM_UDEF_STEREO_COUNT>
0

> <PUBCHEM_BOND_DEF_STEREO_COUNT>
1

> <PUBCHEM_BOND_UDEF_STEREO_COUNT>
0

> <PUBCHEM_ISOTOPIC_ATOM_COUNT>
0

> <PUBCHEM_COMPONENT_COUNT>
1

> <PUBCHEM_CACTVS_TAUTO_COUNT>
2

> <PUBCHEM_COORDINATE_TYPE>
1
5
255

> <PUBCHEM_BONDANNOTATIONS>
13  17  8
13  19  8
14  16  8
14  18  8
16  22  8
17  21  8
18  24  8
19  23  8
21  25  8
22  26  8
23  25  8
24  26  8
30  31  8
30  32  8
31  33  8
33  34  8
5  32  8
5  34  8

$$$$
